recall.rec: written by SWAT+ editor v1.2.3 on 2020-11-02 07:04
      id  name               rec_typ  file              
       1  pt002                    4  pt002             
       2  pt004                    4  pt004             
       3  pt006                    4  pt006             
       4  pt008                    4  pt008             
       5  pt010                    4  pt010             
       6  pt012                    4  pt012             
       7  pt014                    4  pt014             
       8  pt016                    4  pt016             
       9  pt018                    4  pt018             
      10  pt020                    4  pt020             
      11  pt022                    4  pt022             
      12  pt024                    4  pt024             
      13  pt026                    4  pt026             
      14  pt028                    4  pt028             
      15  pt030                    4  pt030             
      16  pt032                    4  pt032             
      17  pt034                    4  pt034             
      18  pt036                    4  pt036             
      19  pt038                    4  pt038             
      20  pt040                    4  pt040             
      21  pt042                    4  pt042             
      22  pt044                    4  pt044             
      23  pt046                    4  pt046             
      24  pt048                    4  pt048             
      25  pt050                    4  pt050             
      26  pt052                    1  pt052.rec         
      27  pt054                    4  pt054             
      28  pt056                    4  pt056             
      29  pt058                    4  pt058             
      30  pt060                    4  pt060             
      31  pt062                    4  pt062             
      32  pt064                    4  pt064             
      33  pt066                    4  pt066             
      34  pt068                    4  pt068             
      35  pt070                    4  pt070             
      36  pt072                    4  pt072             
      37  pt074                    4  pt074             
      38  pt076                    4  pt076             
      39  pt078                    4  pt078             
      40  pt080                    4  pt080             
      41  pt082                    4  pt082             
      42  pt084                    4  pt084             
      43  pt086                    4  pt086             
      44  pt088                    4  pt088             
      45  pt090                    4  pt090             
      46  pt092                    4  pt092             
      47  pt094                    4  pt094             
      48  pt096                    4  pt096             
